  
       XFOIL         Version 6.99
  
 Calculated polar for: F100MOD to 13.5 %                               
  
 1 1 Reynolds number fixed          Mach number fixed         
  
 xtrf =   1.000 (top)        1.000 (bottom)  
 Mach =   0.150     Re =    18.855 e 6     Ncrit =   9.000  9.000
  
   alpha    CL        CD       CDp       CM     Top_Xtr  Bot_Xtr  Top_Itr  Bot_Itr
  ------ -------- --------- --------- -------- -------- -------- -------- --------
   0.000   0.0244   0.00527   0.00035  -0.0043   0.1848   0.3214  65.3619 145.3262
   1.000   0.1393   0.00469   0.00022  -0.0049   0.1626   0.5238  67.1120 161.4128
   2.000   0.2572   0.00482   0.00025  -0.0059   0.1286   0.5680  70.0383 164.9069
   3.000   0.3738   0.00529   0.00039  -0.0066   0.0662   0.5905  76.2235 166.6793
   4.000   0.4908   0.00570   0.00047  -0.0073   0.0389   0.6073  80.2156 167.9949
   5.000   0.6075   0.00610   0.00050  -0.0080   0.0262   0.6279  83.0661 169.6156
   6.000   0.7239   0.00655   0.00046  -0.0085   0.0198   0.6454  84.9737 170.9919
   7.000   0.8365   0.00745   0.00058  -0.0084   0.0033   0.6598  94.1911 172.1168
   8.000   0.9504   0.00812   0.00040  -0.0085   0.0023   0.6726  95.3314 173.1084
   9.000   1.0630   0.00889   0.00007  -0.0084   0.0020   0.6841  95.6978 173.9891
  10.000   1.1738   0.00977  -0.00041  -0.0079   0.0018   0.6976  95.9509 175.0340
  11.000   1.2827   0.01076  -0.00111  -0.0072   0.0017   0.7101  96.0185 175.9956
  12.000   1.3891   0.01187  -0.00205  -0.0060   0.0017   0.7242  96.0686 177.0796
  13.000   1.4916   0.01316  -0.00325  -0.0043   0.0016   0.7455  96.1770 178.7244
  14.000   1.5885   0.01471  -0.00468  -0.0018   0.0015   0.7618  96.3219 179.9820
  15.000   1.6763   0.01658  -0.00626   0.0017   0.0014   0.7812  96.4428 181.4816
  16.000   1.7388   0.01900  -0.00761   0.0085   0.0014   0.8005  96.5231 182.9828
  17.000   1.7854   0.02279  -0.00812   0.0145   0.0013   0.8197  96.5980 184.5081
  18.000   1.8188   0.02862  -0.00722   0.0183   0.0013   0.8381  96.6553 185.9998
  19.000   1.8307   0.03672  -0.00403   0.0206   0.0012   1.0000  96.6822 200.0000
  20.000   1.8141   0.04899   0.00294   0.0200   0.0012   1.0000  96.6976 200.0000
